** Generated for: hspiceD
** Generated on: Jan 24 07:27:35 2019
** Design library name: gain_boost_templates
** Design cell name: ac_tb
** Design view name: schematic
.PARAM ibais=20u m_bias_glob_n=2 m_bias_glob_p=4 m_bias_localn_n=2
+	m_bias_localn_p=4 m_bias_localp_n=2 m_bias_localp_p=4 m_main_csp=60
+	m_main_in=10 m_main_tail=10 vicm=900m vocm=0.6

.OPTION ARTIST=0 PSF=2
.AC DEC 10 1.0 100e9

.OP voltage 1

.TEMP 25.0
.OPTION
+    ARTIST=2
+    INGOLD=2
+    PARHIER=LOCAL
+    PSF=2
.LIB "/tools/gftech14/GF_PDK/14LPP-XL_V1.3.1.0/Models/HSPICE/models/LN14LPP_Hspice.lib" TT

** Library name: gain_boost_templates
** Cell name: core_n
** View name: schematic
.subckt core_n vdd vss cs_n cs_p gb_bot_inn gb_bot_inp gb_bot_outn gb_bot_outp gb_top_inn gb_top_inp gb_top_outn gb_top_outp in_minus in_plus o_minus o_plus tail_b tail_t
xmcs_n_l gb_bot_inn cs_n vss vss nfet m=1 l=14e-9 nfin=2 nf='(m_main_tail/2)*1' par=1 par_nf='1*((m_main_tail/2)*1)' asej='1.188e-15+(2*int((m_main_tail/2)/2))*594e-18' adej='(2*(1+int((m_main_tail/2-1)/2)))*594e-18' psej='227e-9+(((2*int((m_main_tail/2)/2))*1)*2)*54e-9' pdej='(((2*(1+int((m_main_tail/2-1)/2)))*1)*2)*54e-9' pdevdops=1 pdevlgeos=1 pdevwgeos=1 psw_acv_sign=1 plnest=1 pldist=1 plorient=0 cpp=78e-9 fpitch=48e-9 xpos=-99 ypos=-99 ptwell=0 sca=0 scb=0 scc=0 pre_layout_local=-1 ngcon=1 p_vta=0 p_la=0 u0mult_fet=1 lle_sa=71e-9 lle_sb=71e-9 lle_rxrxa=78e-9 lle_rxrxb=78e-9 lle_rxrxn=192e-9 lle_rxrxs=192e-9 lle_pcrxn=65e-9 lle_pcrxs=65e-9 lle_nwa=2e-6 lle_nwb=2e-6 lle_nwn=192e-9 lle_nws=192e-9 lle_ctne=0 lle_ctnw=0 lle_ctse=0 lle_ctsw=0 lle_sctne=0 lle_sctnw=0 lle_sctse=0 lle_sctsw=0 lrsd=38.988e-6 dtemp=0 l_shape=0 l_shape_s=0 nsig_dop1=0 nsig_dop2=0 nsig_dibl=0 nsig_pc=0 nsig_rx=0 fc_index=0 fc_sigma=3
xmcs_n_r gb_bot_inp cs_n vss vss nfet m=1 l=14e-9 nfin=2 nf='(m_main_tail/2)*1' par=1 par_nf='1*((m_main_tail/2)*1)' asej='1.188e-15+(2*int((m_main_tail/2)/2))*594e-18' adej='(2*(1+int((m_main_tail/2-1)/2)))*594e-18' psej='227e-9+(((2*int((m_main_tail/2)/2))*1)*2)*54e-9' pdej='(((2*(1+int((m_main_tail/2-1)/2)))*1)*2)*54e-9' pdevdops=1 pdevlgeos=1 pdevwgeos=1 psw_acv_sign=1 plnest=1 pldist=1 plorient=0 cpp=78e-9 fpitch=48e-9 xpos=-99 ypos=-99 ptwell=0 sca=0 scb=0 scc=0 pre_layout_local=-1 ngcon=1 p_vta=0 p_la=0 u0mult_fet=1 lle_sa=71e-9 lle_sb=71e-9 lle_rxrxa=78e-9 lle_rxrxb=78e-9 lle_rxrxn=192e-9 lle_rxrxs=192e-9 lle_pcrxn=65e-9 lle_pcrxs=65e-9 lle_nwa=2e-6 lle_nwb=2e-6 lle_nwn=192e-9 lle_nws=192e-9 lle_ctne=0 lle_ctnw=0 lle_ctse=0 lle_ctsw=0 lle_sctne=0 lle_sctnw=0 lle_sctse=0 lle_sctsw=0 lrsd=38.988e-6 dtemp=0 l_shape=0 l_shape_s=0 nsig_dop1=0 nsig_dop2=0 nsig_dibl=0 nsig_pc=0 nsig_rx=0 fc_index=0 fc_sigma=3
xmcas_n_l o_minus gb_bot_outp gb_bot_inn vss nfet m=1 l=14e-9 nfin=2 nf='(m_main_tail/2)*1' par=1 par_nf='1*((m_main_tail/2)*1)' asej='1.188e-15+(2*int((m_main_tail/2)/2))*594e-18' adej='(2*(1+int((m_main_tail/2-1)/2)))*594e-18' psej='227e-9+(((2*int((m_main_tail/2)/2))*1)*2)*54e-9' pdej='(((2*(1+int((m_main_tail/2-1)/2)))*1)*2)*54e-9' pdevdops=1 pdevlgeos=1 pdevwgeos=1 psw_acv_sign=1 plnest=1 pldist=1 plorient=0 cpp=78e-9 fpitch=48e-9 xpos=-99 ypos=-99 ptwell=0 sca=0 scb=0 scc=0 pre_layout_local=-1 ngcon=1 p_vta=0 p_la=0 u0mult_fet=1 lle_sa=71e-9 lle_sb=71e-9 lle_rxrxa=78e-9 lle_rxrxb=78e-9 lle_rxrxn=192e-9 lle_rxrxs=192e-9 lle_pcrxn=65e-9 lle_pcrxs=65e-9 lle_nwa=2e-6 lle_nwb=2e-6 lle_nwn=192e-9 lle_nws=192e-9 lle_ctne=0 lle_ctnw=0 lle_ctse=0 lle_ctsw=0 lle_sctne=0 lle_sctnw=0 lle_sctse=0 lle_sctsw=0 lrsd=38.988e-6 dtemp=0 l_shape=0 l_shape_s=0 nsig_dop1=0 nsig_dop2=0 nsig_dibl=0 nsig_pc=0 nsig_rx=0 fc_index=0 fc_sigma=3
xmcas_n_r o_plus gb_bot_outn gb_bot_inp vss nfet m=1 l=14e-9 nfin=2 nf='(m_main_tail/2)*1' par=1 par_nf='1*((m_main_tail/2)*1)' asej='1.188e-15+(2*int((m_main_tail/2)/2))*594e-18' adej='(2*(1+int((m_main_tail/2-1)/2)))*594e-18' psej='227e-9+(((2*int((m_main_tail/2)/2))*1)*2)*54e-9' pdej='(((2*(1+int((m_main_tail/2-1)/2)))*1)*2)*54e-9' pdevdops=1 pdevlgeos=1 pdevwgeos=1 psw_acv_sign=1 plnest=1 pldist=1 plorient=0 cpp=78e-9 fpitch=48e-9 xpos=-99 ypos=-99 ptwell=0 sca=0 scb=0 scc=0 pre_layout_local=-1 ngcon=1 p_vta=0 p_la=0 u0mult_fet=1 lle_sa=71e-9 lle_sb=71e-9 lle_rxrxa=78e-9 lle_rxrxb=78e-9 lle_rxrxn=192e-9 lle_rxrxs=192e-9 lle_pcrxn=65e-9 lle_pcrxs=65e-9 lle_nwa=2e-6 lle_nwb=2e-6 lle_nwn=192e-9 lle_nws=192e-9 lle_ctne=0 lle_ctnw=0 lle_ctse=0 lle_ctsw=0 lle_sctne=0 lle_sctnw=0 lle_sctse=0 lle_sctsw=0 lrsd=38.988e-6 dtemp=0 l_shape=0 l_shape_s=0 nsig_dop1=0 nsig_dop2=0 nsig_dibl=0 nsig_pc=0 nsig_rx=0 fc_index=0 fc_sigma=3
xmtail_bot net7 tail_b vss vss nfet m=1 l=14e-9 nfin=2 nf='m_main_tail*1' par=1 par_nf='1*(m_main_tail*1)' asej='1.188e-15+(2*int(m_main_tail/2))*594e-18' adej='(2*(1+int((m_main_tail-1)/2)))*594e-18' psej='227e-9+(((2*int(m_main_tail/2))*1)*2)*54e-9' pdej='(((2*(1+int((m_main_tail-1)/2)))*1)*2)*54e-9' pdevdops=1 pdevlgeos=1 pdevwgeos=1 psw_acv_sign=1 plnest=1 pldist=1 plorient=0 cpp=78e-9 fpitch=48e-9 xpos=-99 ypos=-99 ptwell=0 sca=0 scb=0 scc=0 pre_layout_local=-1 ngcon=1 p_vta=0 p_la=0 u0mult_fet=1 lle_sa=71e-9 lle_sb=71e-9 lle_rxrxa=78e-9 lle_rxrxb=78e-9 lle_rxrxn=192e-9 lle_rxrxs=192e-9 lle_pcrxn=65e-9 lle_pcrxs=65e-9 lle_nwa=2e-6 lle_nwb=2e-6 lle_nwn=192e-9 lle_nws=192e-9 lle_ctne=0 lle_ctnw=0 lle_ctse=0 lle_ctsw=0 lle_sctne=0 lle_sctnw=0 lle_sctse=0 lle_sctsw=0 lrsd=38.988e-6 dtemp=0 l_shape=0 l_shape_s=0 nsig_dop1=0 nsig_dop2=0 nsig_dibl=0 nsig_pc=0 nsig_rx=0 fc_index=0 fc_sigma=3
xmtail_top net1 tail_t net7 vss nfet m=1 l=14e-9 nfin=2 nf='m_main_tail*1' par=1 par_nf='1*(m_main_tail*1)' asej='1.188e-15+(2*int(m_main_tail/2))*594e-18' adej='(2*(1+int((m_main_tail-1)/2)))*594e-18' psej='227e-9+(((2*int(m_main_tail/2))*1)*2)*54e-9' pdej='(((2*(1+int((m_main_tail-1)/2)))*1)*2)*54e-9' pdevdops=1 pdevlgeos=1 pdevwgeos=1 psw_acv_sign=1 plnest=1 pldist=1 plorient=0 cpp=78e-9 fpitch=48e-9 xpos=-99 ypos=-99 ptwell=0 sca=0 scb=0 scc=0 pre_layout_local=-1 ngcon=1 p_vta=0 p_la=0 u0mult_fet=1 lle_sa=71e-9 lle_sb=71e-9 lle_rxrxa=78e-9 lle_rxrxb=78e-9 lle_rxrxn=192e-9 lle_rxrxs=192e-9 lle_pcrxn=65e-9 lle_pcrxs=65e-9 lle_nwa=2e-6 lle_nwb=2e-6 lle_nwn=192e-9 lle_nws=192e-9 lle_ctne=0 lle_ctnw=0 lle_ctse=0 lle_ctsw=0 lle_sctne=0 lle_sctnw=0 lle_sctse=0 lle_sctsw=0 lrsd=38.988e-6 dtemp=0 l_shape=0 l_shape_s=0 nsig_dop1=0 nsig_dop2=0 nsig_dibl=0 nsig_pc=0 nsig_rx=0 fc_index=0 fc_sigma=3
xmin_plus gb_top_inn in_plus net1 vss nfet m=1 l=14e-9 nfin=2 nf='m_main_in*1' par=1 par_nf='1*(m_main_in*1)' asej='1.188e-15+(2*int(m_main_in/2))*594e-18' adej='(2*(1+int((m_main_in-1)/2)))*594e-18' psej='227e-9+(((2*int(m_main_in/2))*1)*2)*54e-9' pdej='(((2*(1+int((m_main_in-1)/2)))*1)*2)*54e-9' pdevdops=1 pdevlgeos=1 pdevwgeos=1 psw_acv_sign=1 plnest=1 pldist=1 plorient=0 cpp=78e-9 fpitch=48e-9 xpos=-99 ypos=-99 ptwell=0 sca=0 scb=0 scc=0 pre_layout_local=-1 ngcon=1 p_vta=0 p_la=0 u0mult_fet=1 lle_sa=71e-9 lle_sb=71e-9 lle_rxrxa=78e-9 lle_rxrxb=78e-9 lle_rxrxn=192e-9 lle_rxrxs=192e-9 lle_pcrxn=65e-9 lle_pcrxs=65e-9 lle_nwa=2e-6 lle_nwb=2e-6 lle_nwn=192e-9 lle_nws=192e-9 lle_ctne=0 lle_ctnw=0 lle_ctse=0 lle_ctsw=0 lle_sctne=0 lle_sctnw=0 lle_sctse=0 lle_sctsw=0 lrsd=38.988e-6 dtemp=0 l_shape=0 l_shape_s=0 nsig_dop1=0 nsig_dop2=0 nsig_dibl=0 nsig_pc=0 nsig_rx=0 fc_index=0 fc_sigma=3
xmin_minus gb_top_inp in_minus net1 vss nfet m=1 l=14e-9 nfin=2 nf='m_main_in*1' par=1 par_nf='1*(m_main_in*1)' asej='1.188e-15+(2*int(m_main_in/2))*594e-18' adej='(2*(1+int((m_main_in-1)/2)))*594e-18' psej='227e-9+(((2*int(m_main_in/2))*1)*2)*54e-9' pdej='(((2*(1+int((m_main_in-1)/2)))*1)*2)*54e-9' pdevdops=1 pdevlgeos=1 pdevwgeos=1 psw_acv_sign=1 plnest=1 pldist=1 plorient=0 cpp=78e-9 fpitch=48e-9 xpos=-99 ypos=-99 ptwell=0 sca=0 scb=0 scc=0 pre_layout_local=-1 ngcon=1 p_vta=0 p_la=0 u0mult_fet=1 lle_sa=71e-9 lle_sb=71e-9 lle_rxrxa=78e-9 lle_rxrxb=78e-9 lle_rxrxn=192e-9 lle_rxrxs=192e-9 lle_pcrxn=65e-9 lle_pcrxs=65e-9 lle_nwa=2e-6 lle_nwb=2e-6 lle_nwn=192e-9 lle_nws=192e-9 lle_ctne=0 lle_ctnw=0 lle_ctse=0 lle_ctsw=0 lle_sctne=0 lle_sctnw=0 lle_sctse=0 lle_sctsw=0 lrsd=38.988e-6 dtemp=0 l_shape=0 l_shape_s=0 nsig_dop1=0 nsig_dop2=0 nsig_dibl=0 nsig_pc=0 nsig_rx=0 fc_index=0 fc_sigma=3
xmcas_p_l o_minus gb_top_outp gb_top_inn vdd pfet m=1 l=14e-9 nfin=2 nf='(m_main_csp/2)*1' par=1 par_nf='1*((m_main_csp/2)*1)' asej='1.188e-15+(2*int((m_main_csp/2)/2))*594e-18' adej='(2*(1+int((m_main_csp/2-1)/2)))*594e-18' psej='227e-9+(((2*int((m_main_csp/2)/2))*1)*2)*54e-9' pdej='(((2*(1+int((m_main_csp/2-1)/2)))*1)*2)*54e-9' pdevdops=1 pdevlgeos=1 pdevwgeos=1 psw_acv_sign=1 plnest=1 pldist=1 plorient=0 cpp=78e-9 fpitch=48e-9 xpos=-99 ypos=-99 ptwell=0 sca=0 scb=0 scc=0 pre_layout_local=-1 ngcon=1 p_vta=0 p_la=0 u0mult_fet=1 lle_sa=71e-9 lle_sb=71e-9 lle_rxrxa=78e-9 lle_rxrxb=78e-9 lle_rxrxn=192e-9 lle_rxrxs=192e-9 lle_pcrxn=65e-9 lle_pcrxs=65e-9 lle_nwa=2e-6 lle_nwb=2e-6 lle_nwn=192e-9 lle_nws=192e-9 lle_ctne=0 lle_ctnw=0 lle_ctse=0 lle_ctsw=0 lle_sctne=0 lle_sctnw=0 lle_sctse=0 lle_sctsw=0 lrsd=38.988e-6 dtemp=0 l_shape=0 l_shape_s=0 nsig_dop1=0 nsig_dop2=0 nsig_dibl=0 nsig_pc=0 nsig_rx=0 fc_index=0 fc_sigma=3
xmcs_p_l gb_top_inn cs_p vdd vdd pfet m=1 l=14e-9 nfin=2 nf='m_main_csp*1' par=1 par_nf='1*(m_main_csp*1)' asej='1.188e-15+(2*int(m_main_csp/2))*594e-18' adej='(2*(1+int((m_main_csp-1)/2)))*594e-18' psej='227e-9+(((2*int(m_main_csp/2))*1)*2)*54e-9' pdej='(((2*(1+int((m_main_csp-1)/2)))*1)*2)*54e-9' pdevdops=1 pdevlgeos=1 pdevwgeos=1 psw_acv_sign=1 plnest=1 pldist=1 plorient=0 cpp=78e-9 fpitch=48e-9 xpos=-99 ypos=-99 ptwell=0 sca=0 scb=0 scc=0 pre_layout_local=-1 ngcon=1 p_vta=0 p_la=0 u0mult_fet=1 lle_sa=71e-9 lle_sb=71e-9 lle_rxrxa=78e-9 lle_rxrxb=78e-9 lle_rxrxn=192e-9 lle_rxrxs=192e-9 lle_pcrxn=65e-9 lle_pcrxs=65e-9 lle_nwa=2e-6 lle_nwb=2e-6 lle_nwn=192e-9 lle_nws=192e-9 lle_ctne=0 lle_ctnw=0 lle_ctse=0 lle_ctsw=0 lle_sctne=0 lle_sctnw=0 lle_sctse=0 lle_sctsw=0 lrsd=38.988e-6 dtemp=0 l_shape=0 l_shape_s=0 nsig_dop1=0 nsig_dop2=0 nsig_dibl=0 nsig_pc=0 nsig_rx=0 fc_index=0 fc_sigma=3
xmcs_p_r gb_top_inp cs_p vdd vdd pfet m=1 l=14e-9 nfin=2 nf='m_main_csp*1' par=1 par_nf='1*(m_main_csp*1)' asej='1.188e-15+(2*int(m_main_csp/2))*594e-18' adej='(2*(1+int((m_main_csp-1)/2)))*594e-18' psej='227e-9+(((2*int(m_main_csp/2))*1)*2)*54e-9' pdej='(((2*(1+int((m_main_csp-1)/2)))*1)*2)*54e-9' pdevdops=1 pdevlgeos=1 pdevwgeos=1 psw_acv_sign=1 plnest=1 pldist=1 plorient=0 cpp=78e-9 fpitch=48e-9 xpos=-99 ypos=-99 ptwell=0 sca=0 scb=0 scc=0 pre_layout_local=-1 ngcon=1 p_vta=0 p_la=0 u0mult_fet=1 lle_sa=71e-9 lle_sb=71e-9 lle_rxrxa=78e-9 lle_rxrxb=78e-9 lle_rxrxn=192e-9 lle_rxrxs=192e-9 lle_pcrxn=65e-9 lle_pcrxs=65e-9 lle_nwa=2e-6 lle_nwb=2e-6 lle_nwn=192e-9 lle_nws=192e-9 lle_ctne=0 lle_ctnw=0 lle_ctse=0 lle_ctsw=0 lle_sctne=0 lle_sctnw=0 lle_sctse=0 lle_sctsw=0 lrsd=38.988e-6 dtemp=0 l_shape=0 l_shape_s=0 nsig_dop1=0 nsig_dop2=0 nsig_dibl=0 nsig_pc=0 nsig_rx=0 fc_index=0 fc_sigma=3
xmcas_p_r o_plus gb_top_outn gb_top_inp vdd pfet m=1 l=14e-9 nfin=2 nf='(m_main_csp/2)*1' par=1 par_nf='1*((m_main_csp/2)*1)' asej='1.188e-15+(2*int((m_main_csp/2)/2))*594e-18' adej='(2*(1+int((m_main_csp/2-1)/2)))*594e-18' psej='227e-9+(((2*int((m_main_csp/2)/2))*1)*2)*54e-9' pdej='(((2*(1+int((m_main_csp/2-1)/2)))*1)*2)*54e-9' pdevdops=1 pdevlgeos=1 pdevwgeos=1 psw_acv_sign=1 plnest=1 pldist=1 plorient=0 cpp=78e-9 fpitch=48e-9 xpos=-99 ypos=-99 ptwell=0 sca=0 scb=0 scc=0 pre_layout_local=-1 ngcon=1 p_vta=0 p_la=0 u0mult_fet=1 lle_sa=71e-9 lle_sb=71e-9 lle_rxrxa=78e-9 lle_rxrxb=78e-9 lle_rxrxn=192e-9 lle_rxrxs=192e-9 lle_pcrxn=65e-9 lle_pcrxs=65e-9 lle_nwa=2e-6 lle_nwb=2e-6 lle_nwn=192e-9 lle_nws=192e-9 lle_ctne=0 lle_ctnw=0 lle_ctse=0 lle_ctsw=0 lle_sctne=0 lle_sctnw=0 lle_sctse=0 lle_sctsw=0 lrsd=38.988e-6 dtemp=0 l_shape=0 l_shape_s=0 nsig_dop1=0 nsig_dop2=0 nsig_dibl=0 nsig_pc=0 nsig_rx=0 fc_index=0 fc_sigma=3
.ends core_n
** End of subcircuit definition.

** Library name: gain_boost_templates
** Cell name: bias_global
** View name: schematic
.subckt bias_global vdd vss nb nt pb pt
xm5 pb pb pt vdd pfet m=1 l=14e-9 nfin=2 nf='m_bias_glob_p*1' par=1 par_nf='1*(m_bias_glob_p*1)' asej='1.188e-15+(2*int(m_bias_glob_p/2))*594e-18' adej='(2*(1+int((m_bias_glob_p-1)/2)))*594e-18' psej='227e-9+(((2*int(m_bias_glob_p/2))*1)*2)*54e-9' pdej='(((2*(1+int((m_bias_glob_p-1)/2)))*1)*2)*54e-9' pdevdops=1 pdevlgeos=1 pdevwgeos=1 psw_acv_sign=1 plnest=1 pldist=1 plorient=0 cpp=78e-9 fpitch=48e-9 xpos=-99 ypos=-99 ptwell=0 sca=0 scb=0 scc=0 pre_layout_local=-1 ngcon=1 p_vta=0 p_la=0 u0mult_fet=1 lle_sa=71e-9 lle_sb=71e-9 lle_rxrxa=78e-9 lle_rxrxb=78e-9 lle_rxrxn=192e-9 lle_rxrxs=192e-9 lle_pcrxn=65e-9 lle_pcrxs=65e-9 lle_nwa=2e-6 lle_nwb=2e-6 lle_nwn=192e-9 lle_nws=192e-9 lle_ctne=0 lle_ctnw=0 lle_ctse=0 lle_ctsw=0 lle_sctne=0 lle_sctnw=0 lle_sctse=0 lle_sctsw=0 lrsd=38.988e-6 dtemp=0 l_shape=0 l_shape_s=0 nsig_dop1=0 nsig_dop2=0 nsig_dibl=0 nsig_pc=0 nsig_rx=0 fc_index=0 fc_sigma=3
xm6 pt pt vdd vdd pfet m=1 l=14e-9 nfin=2 nf='m_bias_glob_p*1' par=1 par_nf='1*(m_bias_glob_p*1)' asej='1.188e-15+(2*int(m_bias_glob_p/2))*594e-18' adej='(2*(1+int((m_bias_glob_p-1)/2)))*594e-18' psej='227e-9+(((2*int(m_bias_glob_p/2))*1)*2)*54e-9' pdej='(((2*(1+int((m_bias_glob_p-1)/2)))*1)*2)*54e-9' pdevdops=1 pdevlgeos=1 pdevwgeos=1 psw_acv_sign=1 plnest=1 pldist=1 plorient=0 cpp=78e-9 fpitch=48e-9 xpos=-99 ypos=-99 ptwell=0 sca=0 scb=0 scc=0 pre_layout_local=-1 ngcon=1 p_vta=0 p_la=0 u0mult_fet=1 lle_sa=71e-9 lle_sb=71e-9 lle_rxrxa=78e-9 lle_rxrxb=78e-9 lle_rxrxn=192e-9 lle_rxrxs=192e-9 lle_pcrxn=65e-9 lle_pcrxs=65e-9 lle_nwa=2e-6 lle_nwb=2e-6 lle_nwn=192e-9 lle_nws=192e-9 lle_ctne=0 lle_ctnw=0 lle_ctse=0 lle_ctsw=0 lle_sctne=0 lle_sctnw=0 lle_sctse=0 lle_sctsw=0 lrsd=38.988e-6 dtemp=0 l_shape=0 l_shape_s=0 nsig_dop1=0 nsig_dop2=0 nsig_dibl=0 nsig_pc=0 nsig_rx=0 fc_index=0 fc_sigma=3
xm3 nb nb vss vss nfet m=1 l=14e-9 nfin=2 nf='m_bias_glob_n*1' par=1 par_nf='1*(m_bias_glob_n*1)' asej='1.188e-15+(2*int(m_bias_glob_n/2))*594e-18' adej='(2*(1+int((m_bias_glob_n-1)/2)))*594e-18' psej='227e-9+(((2*int(m_bias_glob_n/2))*1)*2)*54e-9' pdej='(((2*(1+int((m_bias_glob_n-1)/2)))*1)*2)*54e-9' pdevdops=1 pdevlgeos=1 pdevwgeos=1 psw_acv_sign=1 plnest=1 pldist=1 plorient=0 cpp=78e-9 fpitch=48e-9 xpos=-99 ypos=-99 ptwell=0 sca=0 scb=0 scc=0 pre_layout_local=-1 ngcon=1 p_vta=0 p_la=0 u0mult_fet=1 lle_sa=71e-9 lle_sb=71e-9 lle_rxrxa=78e-9 lle_rxrxb=78e-9 lle_rxrxn=192e-9 lle_rxrxs=192e-9 lle_pcrxn=65e-9 lle_pcrxs=65e-9 lle_nwa=2e-6 lle_nwb=2e-6 lle_nwn=192e-9 lle_nws=192e-9 lle_ctne=0 lle_ctnw=0 lle_ctse=0 lle_ctsw=0 lle_sctne=0 lle_sctnw=0 lle_sctse=0 lle_sctsw=0 lrsd=38.988e-6 dtemp=0 l_shape=0 l_shape_s=0 nsig_dop1=0 nsig_dop2=0 nsig_dibl=0 nsig_pc=0 nsig_rx=0 fc_index=0 fc_sigma=3
xm1 nt nt nb vss nfet m=1 l=14e-9 nfin=2 nf='m_bias_glob_n*1' par=1 par_nf='1*(m_bias_glob_n*1)' asej='1.188e-15+(2*int(m_bias_glob_n/2))*594e-18' adej='(2*(1+int((m_bias_glob_n-1)/2)))*594e-18' psej='227e-9+(((2*int(m_bias_glob_n/2))*1)*2)*54e-9' pdej='(((2*(1+int((m_bias_glob_n-1)/2)))*1)*2)*54e-9' pdevdops=1 pdevlgeos=1 pdevwgeos=1 psw_acv_sign=1 plnest=1 pldist=1 plorient=0 cpp=78e-9 fpitch=48e-9 xpos=-99 ypos=-99 ptwell=0 sca=0 scb=0 scc=0 pre_layout_local=-1 ngcon=1 p_vta=0 p_la=0 u0mult_fet=1 lle_sa=71e-9 lle_sb=71e-9 lle_rxrxa=78e-9 lle_rxrxb=78e-9 lle_rxrxn=192e-9 lle_rxrxs=192e-9 lle_pcrxn=65e-9 lle_pcrxs=65e-9 lle_nwa=2e-6 lle_nwb=2e-6 lle_nwn=192e-9 lle_nws=192e-9 lle_ctne=0 lle_ctnw=0 lle_ctse=0 lle_ctsw=0 lle_sctne=0 lle_sctnw=0 lle_sctse=0 lle_sctsw=0 lrsd=38.988e-6 dtemp=0 l_shape=0 l_shape_s=0 nsig_dop1=0 nsig_dop2=0 nsig_dibl=0 nsig_pc=0 nsig_rx=0 fc_index=0 fc_sigma=3
xm4 net14 nb vss vss nfet m=1 l=14e-9 nfin=2 nf='m_bias_glob_n*1' par=1 par_nf='1*(m_bias_glob_n*1)' asej='1.188e-15+(2*int(m_bias_glob_n/2))*594e-18' adej='(2*(1+int((m_bias_glob_n-1)/2)))*594e-18' psej='227e-9+(((2*int(m_bias_glob_n/2))*1)*2)*54e-9' pdej='(((2*(1+int((m_bias_glob_n-1)/2)))*1)*2)*54e-9' pdevdops=1 pdevlgeos=1 pdevwgeos=1 psw_acv_sign=1 plnest=1 pldist=1 plorient=0 cpp=78e-9 fpitch=48e-9 xpos=-99 ypos=-99 ptwell=0 sca=0 scb=0 scc=0 pre_layout_local=-1 ngcon=1 p_vta=0 p_la=0 u0mult_fet=1 lle_sa=71e-9 lle_sb=71e-9 lle_rxrxa=78e-9 lle_rxrxb=78e-9 lle_rxrxn=192e-9 lle_rxrxs=192e-9 lle_pcrxn=65e-9 lle_pcrxs=65e-9 lle_nwa=2e-6 lle_nwb=2e-6 lle_nwn=192e-9 lle_nws=192e-9 lle_ctne=0 lle_ctnw=0 lle_ctse=0 lle_ctsw=0 lle_sctne=0 lle_sctnw=0 lle_sctse=0 lle_sctsw=0 lrsd=38.988e-6 dtemp=0 l_shape=0 l_shape_s=0 nsig_dop1=0 nsig_dop2=0 nsig_dibl=0 nsig_pc=0 nsig_rx=0 fc_index=0 fc_sigma=3
xm2 pb nt net14 vss nfet m=1 l=14e-9 nfin=2 nf='m_bias_glob_n*1' par=1 par_nf='1*(m_bias_glob_n*1)' asej='1.188e-15+(2*int(m_bias_glob_n/2))*594e-18' adej='(2*(1+int((m_bias_glob_n-1)/2)))*594e-18' psej='227e-9+(((2*int(m_bias_glob_n/2))*1)*2)*54e-9' pdej='(((2*(1+int((m_bias_glob_n-1)/2)))*1)*2)*54e-9' pdevdops=1 pdevlgeos=1 pdevwgeos=1 psw_acv_sign=1 plnest=1 pldist=1 plorient=0 cpp=78e-9 fpitch=48e-9 xpos=-99 ypos=-99 ptwell=0 sca=0 scb=0 scc=0 pre_layout_local=-1 ngcon=1 p_vta=0 p_la=0 u0mult_fet=1 lle_sa=71e-9 lle_sb=71e-9 lle_rxrxa=78e-9 lle_rxrxb=78e-9 lle_rxrxn=192e-9 lle_rxrxs=192e-9 lle_pcrxn=65e-9 lle_pcrxs=65e-9 lle_nwa=2e-6 lle_nwb=2e-6 lle_nwn=192e-9 lle_nws=192e-9 lle_ctne=0 lle_ctnw=0 lle_ctse=0 lle_ctsw=0 lle_sctne=0 lle_sctnw=0 lle_sctse=0 lle_sctsw=0 lrsd=38.988e-6 dtemp=0 l_shape=0 l_shape_s=0 nsig_dop1=0 nsig_dop2=0 nsig_dibl=0 nsig_pc=0 nsig_rx=0 fc_index=0 fc_sigma=3
.ends bias_global
** End of subcircuit definition.

** Library name: gain_boost_templates
** Cell name: bias_local_nmos
** View name: schematic
.subckt bias_local_nmos vdd vss nb nt pb pt
xm6 nb pb net15 vdd pfet m=1 l=14e-9 nfin=2 nf='m_bias_localn_p*1' par=1 par_nf='1*(m_bias_localn_p*1)' asej='1.188e-15+(2*int(m_bias_localn_p/2))*594e-18' adej='(2*(1+int((m_bias_localn_p-1)/2)))*594e-18' psej='227e-9+(((2*int(m_bias_localn_p/2))*1)*2)*54e-9' pdej='(((2*(1+int((m_bias_localn_p-1)/2)))*1)*2)*54e-9' pdevdops=1 pdevlgeos=1 pdevwgeos=1 psw_acv_sign=1 plnest=1 pldist=1 plorient=0 cpp=78e-9 fpitch=48e-9 xpos=-99 ypos=-99 ptwell=0 sca=0 scb=0 scc=0 pre_layout_local=-1 ngcon=1 p_vta=0 p_la=0 u0mult_fet=1 lle_sa=71e-9 lle_sb=71e-9 lle_rxrxa=78e-9 lle_rxrxb=78e-9 lle_rxrxn=192e-9 lle_rxrxs=192e-9 lle_pcrxn=65e-9 lle_pcrxs=65e-9 lle_nwa=2e-6 lle_nwb=2e-6 lle_nwn=192e-9 lle_nws=192e-9 lle_ctne=0 lle_ctnw=0 lle_ctse=0 lle_ctsw=0 lle_sctne=0 lle_sctnw=0 lle_sctse=0 lle_sctsw=0 lrsd=38.988e-6 dtemp=0 l_shape=0 l_shape_s=0 nsig_dop1=0 nsig_dop2=0 nsig_dibl=0 nsig_pc=0 nsig_rx=0 fc_index=0 fc_sigma=3
xm8 net15 pt vdd vdd pfet m=1 l=14e-9 nfin=2 nf='m_bias_localn_p*1' par=1 par_nf='1*(m_bias_localn_p*1)' asej='1.188e-15+(2*int(m_bias_localn_p/2))*594e-18' adej='(2*(1+int((m_bias_localn_p-1)/2)))*594e-18' psej='227e-9+(((2*int(m_bias_localn_p/2))*1)*2)*54e-9' pdej='(((2*(1+int((m_bias_localn_p-1)/2)))*1)*2)*54e-9' pdevdops=1 pdevlgeos=1 pdevwgeos=1 psw_acv_sign=1 plnest=1 pldist=1 plorient=0 cpp=78e-9 fpitch=48e-9 xpos=-99 ypos=-99 ptwell=0 sca=0 scb=0 scc=0 pre_layout_local=-1 ngcon=1 p_vta=0 p_la=0 u0mult_fet=1 lle_sa=71e-9 lle_sb=71e-9 lle_rxrxa=78e-9 lle_rxrxb=78e-9 lle_rxrxn=192e-9 lle_rxrxs=192e-9 lle_pcrxn=65e-9 lle_pcrxs=65e-9 lle_nwa=2e-6 lle_nwb=2e-6 lle_nwn=192e-9 lle_nws=192e-9 lle_ctne=0 lle_ctnw=0 lle_ctse=0 lle_ctsw=0 lle_sctne=0 lle_sctnw=0 lle_sctse=0 lle_sctsw=0 lrsd=38.988e-6 dtemp=0 l_shape=0 l_shape_s=0 nsig_dop1=0 nsig_dop2=0 nsig_dibl=0 nsig_pc=0 nsig_rx=0 fc_index=0 fc_sigma=3
xm5 nt pb net16 vdd pfet m=1 l=14e-9 nfin=2 nf='m_bias_localn_p*1' par=1 par_nf='1*(m_bias_localn_p*1)' asej='1.188e-15+(2*int(m_bias_localn_p/2))*594e-18' adej='(2*(1+int((m_bias_localn_p-1)/2)))*594e-18' psej='227e-9+(((2*int(m_bias_localn_p/2))*1)*2)*54e-9' pdej='(((2*(1+int((m_bias_localn_p-1)/2)))*1)*2)*54e-9' pdevdops=1 pdevlgeos=1 pdevwgeos=1 psw_acv_sign=1 plnest=1 pldist=1 plorient=0 cpp=78e-9 fpitch=48e-9 xpos=-99 ypos=-99 ptwell=0 sca=0 scb=0 scc=0 pre_layout_local=-1 ngcon=1 p_vta=0 p_la=0 u0mult_fet=1 lle_sa=71e-9 lle_sb=71e-9 lle_rxrxa=78e-9 lle_rxrxb=78e-9 lle_rxrxn=192e-9 lle_rxrxs=192e-9 lle_pcrxn=65e-9 lle_pcrxs=65e-9 lle_nwa=2e-6 lle_nwb=2e-6 lle_nwn=192e-9 lle_nws=192e-9 lle_ctne=0 lle_ctnw=0 lle_ctse=0 lle_ctsw=0 lle_sctne=0 lle_sctnw=0 lle_sctse=0 lle_sctsw=0 lrsd=38.988e-6 dtemp=0 l_shape=0 l_shape_s=0 nsig_dop1=0 nsig_dop2=0 nsig_dibl=0 nsig_pc=0 nsig_rx=0 fc_index=0 fc_sigma=3
xm7 net16 pt vdd vdd pfet m=1 l=14e-9 nfin=2 nf='m_bias_localn_p*1' par=1 par_nf='1*(m_bias_localn_p*1)' asej='1.188e-15+(2*int(m_bias_localn_p/2))*594e-18' adej='(2*(1+int((m_bias_localn_p-1)/2)))*594e-18' psej='227e-9+(((2*int(m_bias_localn_p/2))*1)*2)*54e-9' pdej='(((2*(1+int((m_bias_localn_p-1)/2)))*1)*2)*54e-9' pdevdops=1 pdevlgeos=1 pdevwgeos=1 psw_acv_sign=1 plnest=1 pldist=1 plorient=0 cpp=78e-9 fpitch=48e-9 xpos=-99 ypos=-99 ptwell=0 sca=0 scb=0 scc=0 pre_layout_local=-1 ngcon=1 p_vta=0 p_la=0 u0mult_fet=1 lle_sa=71e-9 lle_sb=71e-9 lle_rxrxa=78e-9 lle_rxrxb=78e-9 lle_rxrxn=192e-9 lle_rxrxs=192e-9 lle_pcrxn=65e-9 lle_pcrxs=65e-9 lle_nwa=2e-6 lle_nwb=2e-6 lle_nwn=192e-9 lle_nws=192e-9 lle_ctne=0 lle_ctnw=0 lle_ctse=0 lle_ctsw=0 lle_sctne=0 lle_sctnw=0 lle_sctse=0 lle_sctsw=0 lrsd=38.988e-6 dtemp=0 l_shape=0 l_shape_s=0 nsig_dop1=0 nsig_dop2=0 nsig_dibl=0 nsig_pc=0 nsig_rx=0 fc_index=0 fc_sigma=3
xm2 net13 nb vss vss nfet m=1 l=14e-9 nfin=2 nf='m_bias_localn_n*1' par=1 par_nf='1*(m_bias_localn_n*1)' asej='1.188e-15+(2*int(m_bias_localn_n/2))*594e-18' adej='(2*(1+int((m_bias_localn_n-1)/2)))*594e-18' psej='227e-9+(((2*int(m_bias_localn_n/2))*1)*2)*54e-9' pdej='(((2*(1+int((m_bias_localn_n-1)/2)))*1)*2)*54e-9' pdevdops=1 pdevlgeos=1 pdevwgeos=1 psw_acv_sign=1 plnest=1 pldist=1 plorient=0 cpp=78e-9 fpitch=48e-9 xpos=-99 ypos=-99 ptwell=0 sca=0 scb=0 scc=0 pre_layout_local=-1 ngcon=1 p_vta=0 p_la=0 u0mult_fet=1 lle_sa=71e-9 lle_sb=71e-9 lle_rxrxa=78e-9 lle_rxrxb=78e-9 lle_rxrxn=192e-9 lle_rxrxs=192e-9 lle_pcrxn=65e-9 lle_pcrxs=65e-9 lle_nwa=2e-6 lle_nwb=2e-6 lle_nwn=192e-9 lle_nws=192e-9 lle_ctne=0 lle_ctnw=0 lle_ctse=0 lle_ctsw=0 lle_sctne=0 lle_sctnw=0 lle_sctse=0 lle_sctsw=0 lrsd=38.988e-6 dtemp=0 l_shape=0 l_shape_s=0 nsig_dop1=0 nsig_dop2=0 nsig_dibl=0 nsig_pc=0 nsig_rx=0 fc_index=0 fc_sigma=3
xm4 nb nt net13 vss nfet m=1 l=14e-9 nfin=2 nf='m_bias_localn_n*1' par=1 par_nf='1*(m_bias_localn_n*1)' asej='1.188e-15+(2*int(m_bias_localn_n/2))*594e-18' adej='(2*(1+int((m_bias_localn_n-1)/2)))*594e-18' psej='227e-9+(((2*int(m_bias_localn_n/2))*1)*2)*54e-9' pdej='(((2*(1+int((m_bias_localn_n-1)/2)))*1)*2)*54e-9' pdevdops=1 pdevlgeos=1 pdevwgeos=1 psw_acv_sign=1 plnest=1 pldist=1 plorient=0 cpp=78e-9 fpitch=48e-9 xpos=-99 ypos=-99 ptwell=0 sca=0 scb=0 scc=0 pre_layout_local=-1 ngcon=1 p_vta=0 p_la=0 u0mult_fet=1 lle_sa=71e-9 lle_sb=71e-9 lle_rxrxa=78e-9 lle_rxrxb=78e-9 lle_rxrxn=192e-9 lle_rxrxs=192e-9 lle_pcrxn=65e-9 lle_pcrxs=65e-9 lle_nwa=2e-6 lle_nwb=2e-6 lle_nwn=192e-9 lle_nws=192e-9 lle_ctne=0 lle_ctnw=0 lle_ctse=0 lle_ctsw=0 lle_sctne=0 lle_sctnw=0 lle_sctse=0 lle_sctsw=0 lrsd=38.988e-6 dtemp=0 l_shape=0 l_shape_s=0 nsig_dop1=0 nsig_dop2=0 nsig_dibl=0 nsig_pc=0 nsig_rx=0 fc_index=0 fc_sigma=3
xm1 net14 nt vss vss nfet m=1 l=14e-9 nfin=2 nf='(m_bias_localn_n/2)*1' par=1 par_nf='1*((m_bias_localn_n/2)*1)' asej='1.188e-15+(2*int((m_bias_localn_n/2)/2))*594e-18' adej='(2*(1+int((m_bias_localn_n/2-1)/2)))*594e-18' psej='227e-9+(((2*int((m_bias_localn_n/2)/2))*1)*2)*54e-9' pdej='(((2*(1+int((m_bias_localn_n/2-1)/2)))*1)*2)*54e-9' pdevdops=1 pdevlgeos=1 pdevwgeos=1 psw_acv_sign=1 plnest=1 pldist=1 plorient=0 cpp=78e-9 fpitch=48e-9 xpos=-99 ypos=-99 ptwell=0 sca=0 scb=0 scc=0 pre_layout_local=-1 ngcon=1 p_vta=0 p_la=0 u0mult_fet=1 lle_sa=71e-9 lle_sb=71e-9 lle_rxrxa=78e-9 lle_rxrxb=78e-9 lle_rxrxn=192e-9 lle_rxrxs=192e-9 lle_pcrxn=65e-9 lle_pcrxs=65e-9 lle_nwa=2e-6 lle_nwb=2e-6 lle_nwn=192e-9 lle_nws=192e-9 lle_ctne=0 lle_ctnw=0 lle_ctse=0 lle_ctsw=0 lle_sctne=0 lle_sctnw=0 lle_sctse=0 lle_sctsw=0 lrsd=38.988e-6 dtemp=0 l_shape=0 l_shape_s=0 nsig_dop1=0 nsig_dop2=0 nsig_dibl=0 nsig_pc=0 nsig_rx=0 fc_index=0 fc_sigma=3
xm3 nt nt net14 vss nfet m=1 l=14e-9 nfin=2 nf='(m_bias_localn_n/2)*1' par=1 par_nf='1*((m_bias_localn_n/2)*1)' asej='1.188e-15+(2*int((m_bias_localn_n/2)/2))*594e-18' adej='(2*(1+int((m_bias_localn_n/2-1)/2)))*594e-18' psej='227e-9+(((2*int((m_bias_localn_n/2)/2))*1)*2)*54e-9' pdej='(((2*(1+int((m_bias_localn_n/2-1)/2)))*1)*2)*54e-9' pdevdops=1 pdevlgeos=1 pdevwgeos=1 psw_acv_sign=1 plnest=1 pldist=1 plorient=0 cpp=78e-9 fpitch=48e-9 xpos=-99 ypos=-99 ptwell=0 sca=0 scb=0 scc=0 pre_layout_local=-1 ngcon=1 p_vta=0 p_la=0 u0mult_fet=1 lle_sa=71e-9 lle_sb=71e-9 lle_rxrxa=78e-9 lle_rxrxb=78e-9 lle_rxrxn=192e-9 lle_rxrxs=192e-9 lle_pcrxn=65e-9 lle_pcrxs=65e-9 lle_nwa=2e-6 lle_nwb=2e-6 lle_nwn=192e-9 lle_nws=192e-9 lle_ctne=0 lle_ctnw=0 lle_ctse=0 lle_ctsw=0 lle_sctne=0 lle_sctnw=0 lle_sctse=0 lle_sctsw=0 lrsd=38.988e-6 dtemp=0 l_shape=0 l_shape_s=0 nsig_dop1=0 nsig_dop2=0 nsig_dibl=0 nsig_pc=0 nsig_rx=0 fc_index=0 fc_sigma=3
.ends bias_local_nmos
** End of subcircuit definition.

** Library name: gain_boost_templates
** Cell name: bias_local_pmos
** View name: schematic
.subckt bias_local_pmos vdd vss nb nt pb pt
xm3 pb nt net15 vss nfet m=1 l=14e-9 nfin=2 nf='m_bias_localp_n*1' par=1 par_nf='1*(m_bias_localp_n*1)' asej='1.188e-15+(2*int(m_bias_localp_n/2))*594e-18' adej='(2*(1+int((m_bias_localp_n-1)/2)))*594e-18' psej='227e-9+(((2*int(m_bias_localp_n/2))*1)*2)*54e-9' pdej='(((2*(1+int((m_bias_localp_n-1)/2)))*1)*2)*54e-9' pdevdops=1 pdevlgeos=1 pdevwgeos=1 psw_acv_sign=1 plnest=1 pldist=1 plorient=0 cpp=78e-9 fpitch=48e-9 xpos=-99 ypos=-99 ptwell=0 sca=0 scb=0 scc=0 pre_layout_local=-1 ngcon=1 p_vta=0 p_la=0 u0mult_fet=1 lle_sa=71e-9 lle_sb=71e-9 lle_rxrxa=78e-9 lle_rxrxb=78e-9 lle_rxrxn=192e-9 lle_rxrxs=192e-9 lle_pcrxn=65e-9 lle_pcrxs=65e-9 lle_nwa=2e-6 lle_nwb=2e-6 lle_nwn=192e-9 lle_nws=192e-9 lle_ctne=0 lle_ctnw=0 lle_ctse=0 lle_ctsw=0 lle_sctne=0 lle_sctnw=0 lle_sctse=0 lle_sctsw=0 lrsd=38.988e-6 dtemp=0 l_shape=0 l_shape_s=0 nsig_dop1=0 nsig_dop2=0 nsig_dibl=0 nsig_pc=0 nsig_rx=0 fc_index=0 fc_sigma=3
xm1 net15 nb vss vss nfet m=1 l=14e-9 nfin=2 nf='m_bias_localp_n*1' par=1 par_nf='1*(m_bias_localp_n*1)' asej='1.188e-15+(2*int(m_bias_localp_n/2))*594e-18' adej='(2*(1+int((m_bias_localp_n-1)/2)))*594e-18' psej='227e-9+(((2*int(m_bias_localp_n/2))*1)*2)*54e-9' pdej='(((2*(1+int((m_bias_localp_n-1)/2)))*1)*2)*54e-9' pdevdops=1 pdevlgeos=1 pdevwgeos=1 psw_acv_sign=1 plnest=1 pldist=1 plorient=0 cpp=78e-9 fpitch=48e-9 xpos=-99 ypos=-99 ptwell=0 sca=0 scb=0 scc=0 pre_layout_local=-1 ngcon=1 p_vta=0 p_la=0 u0mult_fet=1 lle_sa=71e-9 lle_sb=71e-9 lle_rxrxa=78e-9 lle_rxrxb=78e-9 lle_rxrxn=192e-9 lle_rxrxs=192e-9 lle_pcrxn=65e-9 lle_pcrxs=65e-9 lle_nwa=2e-6 lle_nwb=2e-6 lle_nwn=192e-9 lle_nws=192e-9 lle_ctne=0 lle_ctnw=0 lle_ctse=0 lle_ctsw=0 lle_sctne=0 lle_sctnw=0 lle_sctse=0 lle_sctsw=0 lrsd=38.988e-6 dtemp=0 l_shape=0 l_shape_s=0 nsig_dop1=0 nsig_dop2=0 nsig_dibl=0 nsig_pc=0 nsig_rx=0 fc_index=0 fc_sigma=3
xm2 net16 nb vss vss nfet m=1 l=14e-9 nfin=2 nf='m_bias_localp_n*1' par=1 par_nf='1*(m_bias_localp_n*1)' asej='1.188e-15+(2*int(m_bias_localp_n/2))*594e-18' adej='(2*(1+int((m_bias_localp_n-1)/2)))*594e-18' psej='227e-9+(((2*int(m_bias_localp_n/2))*1)*2)*54e-9' pdej='(((2*(1+int((m_bias_localp_n-1)/2)))*1)*2)*54e-9' pdevdops=1 pdevlgeos=1 pdevwgeos=1 psw_acv_sign=1 plnest=1 pldist=1 plorient=0 cpp=78e-9 fpitch=48e-9 xpos=-99 ypos=-99 ptwell=0 sca=0 scb=0 scc=0 pre_layout_local=-1 ngcon=1 p_vta=0 p_la=0 u0mult_fet=1 lle_sa=71e-9 lle_sb=71e-9 lle_rxrxa=78e-9 lle_rxrxb=78e-9 lle_rxrxn=192e-9 lle_rxrxs=192e-9 lle_pcrxn=65e-9 lle_pcrxs=65e-9 lle_nwa=2e-6 lle_nwb=2e-6 lle_nwn=192e-9 lle_nws=192e-9 lle_ctne=0 lle_ctnw=0 lle_ctse=0 lle_ctsw=0 lle_sctne=0 lle_sctnw=0 lle_sctse=0 lle_sctsw=0 lrsd=38.988e-6 dtemp=0 l_shape=0 l_shape_s=0 nsig_dop1=0 nsig_dop2=0 nsig_dibl=0 nsig_pc=0 nsig_rx=0 fc_index=0 fc_sigma=3
xm4 pt nt net16 vss nfet m=1 l=14e-9 nfin=2 nf='m_bias_localp_n*1' par=1 par_nf='1*(m_bias_localp_n*1)' asej='1.188e-15+(2*int(m_bias_localp_n/2))*594e-18' adej='(2*(1+int((m_bias_localp_n-1)/2)))*594e-18' psej='227e-9+(((2*int(m_bias_localp_n/2))*1)*2)*54e-9' pdej='(((2*(1+int((m_bias_localp_n-1)/2)))*1)*2)*54e-9' pdevdops=1 pdevlgeos=1 pdevwgeos=1 psw_acv_sign=1 plnest=1 pldist=1 plorient=0 cpp=78e-9 fpitch=48e-9 xpos=-99 ypos=-99 ptwell=0 sca=0 scb=0 scc=0 pre_layout_local=-1 ngcon=1 p_vta=0 p_la=0 u0mult_fet=1 lle_sa=71e-9 lle_sb=71e-9 lle_rxrxa=78e-9 lle_rxrxb=78e-9 lle_rxrxn=192e-9 lle_rxrxs=192e-9 lle_pcrxn=65e-9 lle_pcrxs=65e-9 lle_nwa=2e-6 lle_nwb=2e-6 lle_nwn=192e-9 lle_nws=192e-9 lle_ctne=0 lle_ctnw=0 lle_ctse=0 lle_ctsw=0 lle_sctne=0 lle_sctnw=0 lle_sctse=0 lle_sctsw=0 lrsd=38.988e-6 dtemp=0 l_shape=0 l_shape_s=0 nsig_dop1=0 nsig_dop2=0 nsig_dibl=0 nsig_pc=0 nsig_rx=0 fc_index=0 fc_sigma=3
xm8 net13 pt vdd vdd pfet m=1 l=14e-9 nfin=2 nf='m_bias_localp_p*1' par=1 par_nf='1*(m_bias_localp_p*1)' asej='1.188e-15+(2*int(m_bias_localp_p/2))*594e-18' adej='(2*(1+int((m_bias_localp_p-1)/2)))*594e-18' psej='227e-9+(((2*int(m_bias_localp_p/2))*1)*2)*54e-9' pdej='(((2*(1+int((m_bias_localp_p-1)/2)))*1)*2)*54e-9' pdevdops=1 pdevlgeos=1 pdevwgeos=1 psw_acv_sign=1 plnest=1 pldist=1 plorient=0 cpp=78e-9 fpitch=48e-9 xpos=-99 ypos=-99 ptwell=0 sca=0 scb=0 scc=0 pre_layout_local=-1 ngcon=1 p_vta=0 p_la=0 u0mult_fet=1 lle_sa=71e-9 lle_sb=71e-9 lle_rxrxa=78e-9 lle_rxrxb=78e-9 lle_rxrxn=192e-9 lle_rxrxs=192e-9 lle_pcrxn=65e-9 lle_pcrxs=65e-9 lle_nwa=2e-6 lle_nwb=2e-6 lle_nwn=192e-9 lle_nws=192e-9 lle_ctne=0 lle_ctnw=0 lle_ctse=0 lle_ctsw=0 lle_sctne=0 lle_sctnw=0 lle_sctse=0 lle_sctsw=0 lrsd=38.988e-6 dtemp=0 l_shape=0 l_shape_s=0 nsig_dop1=0 nsig_dop2=0 nsig_dibl=0 nsig_pc=0 nsig_rx=0 fc_index=0 fc_sigma=3